/*--------------------------------*- C++ -*----------------------------------*\
| =========                 |                                                 |
| \\      /  F ield         | OpenFOAM: The Open Source CFD Toolbox           |
|  \\    /   O peration     | Version:  v2212                                 |
|   \\  /    A nd           | Website:  www.openfoam.com                      |
|    \\/     M anipulation  |                                                 |
\*---------------------------------------------------------------------------*/
FoamFile
{
    version     2.0;
    format      ascii;
    class       volScalarField;
    object      p;
}
// * * * * * * * * * * * * * * * * * * * * * * * * * * * * * * * * * * * * * //

dimensions      [1 -1 -2 0 0 0 0];

internalField   uniform 0;

boundaryField
{
    inlet
    {
        type            fixedFluxPressure;
		gradient        uniform 0;
        value           uniform 0;
    }
    outlet
    {		
	    type            fixedValue;
        value           uniform 0;
    }
    Wall_side
    {
        type            fixedFluxPressure;
		gradient        uniform 0;
        value           uniform 0;
    }
    Wall_out
    {
        type            fixedFluxPressure;
		gradient        uniform 0;
        value           uniform 0;
    }
    Wall_inside
    {
        type            fixedFluxPressure;
		gradient        uniform 0;
        value           uniform 0;
    }


}


// ************************************************************************* //
