/*--------------------------------*- C++ -*----------------------------------*\
| =========                 |                                                 |
| \\      /  F ield         | OpenFOAM: The Open Source CFD Toolbox           |
|  \\    /   O peration     | Version:  v2212                                 |
|   \\  /    A nd           | Website:  www.openfoam.com                      |
|    \\/     M anipulation  |                                                 |
\*---------------------------------------------------------------------------*/
FoamFile
{
    version     2.0;
    format      ascii;
    class       volScalarField;
    object      T;
}
// * * * * * * * * * * * * * * * * * * * * * * * * * * * * * * * * * * * * * //

dimensions      [0 0 0 1 0 0 0];

internalField   uniform 573;

boundaryField
{
    inlet
    {
        type            fixedValue;
		value			uniform 573;
    }
    outlet
    {
		type            inletOutlet;
        inletValue      uniform 573;
        value           uniform 573;
    }
    Wall_side
    {
        type    zeroGradient;
    }
    Wall_out
    {
        type    zeroGradient;
    }
    Wall_inside
    {
        type    zeroGradient;
    }



}


// ************************************************************************* //
